Version 4
SHEET 1 1264 812
WIRE 224 -256 -160 -256
WIRE 432 -256 224 -256
WIRE 560 -256 432 -256
WIRE 224 -224 224 -256
WIRE 512 -208 368 -208
WIRE 432 -176 432 -256
WIRE -160 -160 -160 -256
WIRE 368 -160 368 -208
WIRE 400 -160 368 -160
WIRE 512 -144 512 -208
WIRE 512 -144 464 -144
WIRE 560 -144 512 -144
WIRE 64 -128 -16 -128
WIRE 224 -128 224 -144
WIRE 224 -128 64 -128
WIRE 400 -128 224 -128
WIRE -16 -112 -16 -128
WIRE 64 -112 64 -128
WIRE 224 -112 224 -128
WIRE -160 0 -160 -80
WIRE -16 0 -16 -48
WIRE -16 0 -160 0
WIRE 64 0 64 -48
WIRE 64 0 -16 0
WIRE 224 0 224 -32
WIRE 224 0 64 0
WIRE 432 0 432 -112
WIRE 432 0 224 0
WIRE 560 0 432 0
WIRE -160 48 -160 0
WIRE -16 160 -80 160
WIRE 32 160 -16 160
WIRE 480 176 256 176
WIRE 32 192 -16 192
WIRE -16 240 -16 192
WIRE -16 240 -80 240
WIRE -80 256 -80 240
WIRE 480 304 480 176
WIRE 512 304 480 304
WIRE 1136 304 752 304
WIRE 32 336 -80 336
WIRE 1040 336 752 336
WIRE 512 352 256 352
WIRE 32 368 -16 368
WIRE 944 384 752 384
WIRE 512 400 448 400
WIRE -16 416 -16 368
WIRE -16 416 -80 416
WIRE 848 416 752 416
WIRE -80 432 -80 416
WIRE 848 464 848 416
WIRE 944 464 944 384
WIRE 1040 464 1040 336
WIRE 1136 464 1136 304
WIRE -112 560 -192 560
WIRE -16 560 -112 560
WIRE 32 560 -16 560
WIRE 848 560 848 544
WIRE 944 560 944 544
WIRE 944 560 848 560
WIRE 1040 560 1040 544
WIRE 1040 560 944 560
WIRE 1136 560 1136 544
WIRE 1136 560 1040 560
WIRE 1136 576 1136 560
WIRE -16 592 -16 560
WIRE 32 592 -16 592
WIRE 448 608 448 400
WIRE 448 608 288 608
WIRE -16 624 -80 624
WIRE 32 624 -16 624
WIRE -16 656 -16 624
WIRE 32 656 -16 656
WIRE -192 736 -192 640
WIRE -80 736 -80 704
WIRE -80 736 -192 736
WIRE -192 752 -192 736
FLAG -80 256 0
FLAG -80 432 0
FLAG 560 -144 Vgnd
IOPIN 560 -144 Out
FLAG 560 -256 Vcc
IOPIN 560 -256 Out
FLAG 560 0 Vee
IOPIN 560 0 Out
FLAG -160 48 0
FLAG -192 752 0
FLAG 1136 576 0
FLAG 1136 304 COLD
FLAG 1040 336 HOT
FLAG 944 384 MUSICOUT
FLAG 848 416 VOICEOUT
FLAG -112 560 TP1
FLAG -16 160 TP2
SYMBOL NewBalancedMicInput_V2.4 144 176 R0
WINDOW 0 -94 -40 Bottom 2
WINDOW 39 4 70 Bottom 2
SYMATTR InstName X1
SYMATTR SpiceLine tone={mic1tone} vol={mic1vol}
SYMBOL NewBalancedMicInput_V2.4 144 352 R0
WINDOW 0 -92 -42 Bottom 2
WINDOW 39 -3 73 Bottom 2
SYMATTR InstName X2
SYMATTR SpiceLine tone=0.5 vol=1.0
SYMBOL voltage -80 144 R0
WINDOW 0 -43 15 Left 2
WINDOW 3 -291 51 Left 2
WINDOW 123 -291 79 Left 2
WINDOW 39 0 0 Left 0
SYMATTR InstName V1
SYMATTR Value SINE(0 0 2000)
SYMATTR Value2 AC 1
SYMBOL voltage -80 320 R0
WINDOW 0 -45 15 Left 2
WINDOW 3 -241 55 Left 2
WINDOW 123 -241 83 Left 2
WINDOW 39 0 0 Left 0
SYMATTR InstName V2
SYMATTR Value SINE(0 0.0 1300)
SYMBOL UniversalOpamp 432 -144 R0
SYMATTR InstName U1
SYMATTR Value2 Avol=100K GBW=1.2Meg Vos=0
SYMBOL Res 208 -240 R0
SYMATTR InstName R3
SYMATTR Value 100k
SYMBOL Res 208 -128 R0
SYMATTR InstName R4
SYMATTR Value 68K
SYMBOL voltage -160 -176 R0
WINDOW 123 0 0 Left 0
WINDOW 39 0 0 Left 0
WINDOW 0 -63 25 Left 2
WINDOW 3 -172 103 Left 2
SYMATTR InstName V4
SYMATTR Value SINE(6 0.1 60)
SYMBOL Cap 48 -112 R0
SYMATTR InstName C2
SYMATTR Value 1n
SYMBOL polcap -32 -112 R0
SYMATTR InstName C1
SYMATTR Value 22µ
SYMBOL NewMusicInput_V2.4 160 608 R0
WINDOW 0 -114 -78 Bottom 2
WINDOW 39 2 104 Bottom 2
SYMATTR InstName X3
SYMATTR SpiceLine bass=0.5 treble=0.5
SYMBOL voltage -192 544 R0
WINDOW 0 -45 15 Left 2
WINDOW 3 -243 56 Left 2
WINDOW 123 -243 84 Left 2
WINDOW 39 0 0 Left 0
SYMATTR InstName V3
SYMATTR Value SINE(0 0 250)
SYMBOL voltage -80 608 R0
WINDOW 0 -45 15 Left 2
WINDOW 3 -222 58 Left 2
WINDOW 123 0 0 Left 0
WINDOW 39 0 0 Left 0
SYMATTR InstName V6
SYMATTR Value SINE(0 0 300)
SYMBOL NewFinalMixer_V2.4 624 352 R0
SYMATTR InstName X4
SYMBOL res 864 560 R180
WINDOW 0 36 76 Left 2
WINDOW 3 36 40 Left 2
SYMATTR InstName R1
SYMATTR Value 100K
SYMBOL res 928 448 R0
WINDOW 0 -38 36 Left 2
WINDOW 3 -57 71 Left 2
SYMATTR InstName R2
SYMATTR Value 100K
SYMBOL res 1056 560 R180
WINDOW 0 36 76 Left 2
WINDOW 3 36 40 Left 2
SYMATTR InstName R5
SYMATTR Value 100K
SYMBOL res 1152 560 R180
WINDOW 0 36 76 Left 2
WINDOW 3 36 40 Left 2
SYMATTR InstName R6
SYMATTR Value 100K
TEXT -1144 56 Left 2 ;.tran 150m
TEXT -160 -320 Left 2 ;9VDC battery (9.5V fresh to 7.5V low)\nwith 100mV 60Hz noise
TEXT -1152 -304 Left 6 ;Portable Mixer, V2.4
TEXT -1144 -80 Left 2 !.ac oct 10 10 60K\n.meas gmax max(mag(V(cold)))\n.meas AC fc1 FROM 0 TARG mag(V(cold))=gmax/sqrt(2) RISE=1\n.meas AC fc2 FROM 0 TARG mag(V(cold))=gmax/sqrt(2) FALL=1
TEXT -1136 168 Left 2 ;.step param musicvol 0 1.0 0.1
TEXT -1136 328 Left 2 !.param musicvol=1.0
TEXT -1136 136 Left 2 ;.step param remotevol 0 1.0 0.1
TEXT -1136 296 Left 2 !.param remotevol 1.0
TEXT -1144 -144 Left 2 !.global Vcc Vee Vgnd
TEXT -1136 200 Left 2 ;.step param mic1vol 0 1.0 0.05
TEXT -1136 360 Left 2 ;.param mic1vol=1.0 mic1tone=0.5
TEXT -1104 480 Left 2 !.step param mic1tone 0 1.0 0.1\n.param mic1vol 1.0
